*Heading
** Job name: composite_para_fine Model name: Model-composite
** Generated by: Abaqus/CAE 6.12-1
*Preprint, echo=NO, model=NO, history=NO, contact=NO
**
** PARTS
**
*Part, name=Part-composite
*Node
      1,         0.25,         0.25,  0.100000001
      2,  0.200000003,         0.25,  0.100000001
      3,  0.200000003,  0.200000003,  0.100000001
      4,         0.25,  0.200000003,  0.100000001
      5,  0.200000003,         0.25,           0.
      6,  0.200000003,  0.200000003,           0.
      7,         0.25,  0.200000003,           0.
      8,         0.25,         0.25,           0.
      9,  0.200000003,           1.,  0.100000001
     10,  0.200000003,  0.800000012,  0.100000001
     11,         0.25,  0.800000012,  0.100000001
     12,         0.25,           1.,  0.100000001
     13,  0.200000003,  0.800000012,           0.
     14,         0.25,  0.800000012,           0.
     15,         0.25,           1.,           0.
     16,  0.200000003,           1.,           0.
     17,         0.25,         0.75,  0.100000001
     18,  0.200000003,         0.75,  0.100000001
     19,  0.200000003,         0.75,           0.
     20,         0.25,         0.75,           0.
** ... 8385 like lines cut
*Element, type=C3D8
 1,   84, 1029, 4731, 1023,    1,   73, 1021,   76
 2, 1029,   90, 1026, 4731,   73,    2,   74, 1021
 3, 1023, 4731, 1032,   83,   76, 1021,   75,    4
 4, 4731, 1026,   89, 1032, 1021,   74,    3,   75
 5,   85, 1030, 4732, 1024,   84, 1029, 4731, 1023
 6, 1030,   91, 1027, 4732, 1029,   90, 1026, 4731
 7, 1024, 4732, 1033,   82, 1023, 4731, 1032,   83
 8, 4732, 1027,   88, 1033, 4731, 1026,   89, 1032
 9,   86, 1031, 4733, 1025,   85, 1030, 4732, 1024
10, 1031,   92, 1028, 4733, 1030,   91, 1027, 4732
11, 1025, 4733, 1034,   81, 1024, 4732, 1033,   82
12, 4733, 1028,   87, 1034, 4732, 1027,   88, 1033
13,    8,   77, 1022,   80,   86, 1031, 4733, 1025
14,   77,    5,   78, 1022, 1031,   92, 1028, 4733
15,   80, 1022,   79,    7, 1025, 4733, 1034,   81
16, 1022,   78,    6,   79, 4733, 1028,   87, 1034
17,  130, 1055, 4734, 1049,    9,   93, 1035,  108
18, 1055, 1056, 4735, 4734,   93,   94, 1036, 1035
19, 1056, 1057, 4736, 4735,   94,   95, 1037, 1036
20, 1057, 1058, 4737, 4736,   95,   96, 1038, 1037
** ... 6380 like lines cut
*Nset, nset=Set-1
    1,    2,    3,    4,    5,    6,    7,    8,    9,   10,   11,   12,   13,   14,   15,   16
   17,   18,   19,   20,   21,   22,   23,   24,   25,   26,   27,   28,   29,   30,   31,   32
   33,   34,   35,   36,   37,   38,   39,   40,   41,   42,   43,   44,   45,   46,   47,   48
   49,   50,   51,   52,   53,   54,   55,   56,   57,   58,   59,   60,   61,   62,   63,   64
   65,   66,   67,   68,   69,   70,   71,   72,   81,   82,   83,   84,   85,   86,   87,   88
   89,   90,   91,   92,   93,   94,   95,   96,   97,   98,   99,  101,  102,  103,  104,  105
  106,  107,  109,  110,  111,  112,  113,  114,  115,  117,  118,  119,  120,  121,  122,  123
  125,  126,  127,  128,  129,  130,  131,  132,  133,  134,  135,  136,  138,  139,  140,  141
  142,  143,  144,  145,  146,  147,  148,  149,  150,  151,  152,  153,  154,  155,  156,  157
  158,  159,  160,  161,  162,  163,  164,  165,  166,  167,  168,  169,  170,  171,  172,  173
  174,  175,  177,  178,  179,  180,  181,  182,  183,  184,  185,  186,  187,  188,  189,  190
  191,  192,  193,  194,  195,  196,  197,  198,  199,  200,  201,  202,  203,  204,  205,  206
  207,  208,  209,  210,  211,  212,  213,  214,  215,  216,  217,  218,  219,  220,  222,  223
  224,  225,  226,  227,  228,  230,  231,  232,  233,  234,  235,  236,  238,  239,  240,  241
  242,  243,  244,  246,  247,  248,  249,  250,  251,  252,  253,  254,  255,  256,  257,  258
  259,  260,  261,  262,  263,  264,  265,  266,  267,  268,  269,  270,  271,  272,  274,  275
  276,  277,  278,  279,  280,  281,  282,  283,  284,  285,  286,  287,  289,  290,  291,  292
  293,  294,  295,  296,  297,  298,  299,  300,  301,  302,  303,  304,  305,  306,  307,  308
  309,  310,  311,  312,  313,  314,  315,  316,  317,  318,  319,  320,  321,  322,  323,  324
  325,  326,  327,  328,  329,  330,  331,  332,  333,  334,  335,  336,  337,  338,  339,  340
** ... 456 like lines cut
*Elset, elset=Set-1
  369,  370,  371,  372,  373,  374,  375,  376,  377,  378,  379,  380,  381,  382,  383,  384
  385,  386,  387,  388,  389,  390,  391,  392,  393,  394,  395,  396,  397,  398,  399,  400
  401,  402,  403,  404,  405,  406,  407,  408,  409,  410,  411,  412,  413,  414,  415,  416
  417,  418,  419,  420,  421,  422,  423,  424,  425,  426,  427,  428,  429,  430,  431,  432
  433,  434,  435,  436,  437,  438,  439,  440,  441,  442,  443,  444,  445,  446,  447,  448
  449,  450,  451,  452,  453,  454,  455,  456,  457,  458,  459,  460,  461,  462,  463,  464
  465,  466,  467,  468,  469,  470,  471,  472,  473,  474,  475,  476,  477,  478,  479,  480
  481,  482,  483,  484,  485,  486,  487,  488,  489,  490,  491,  492,  493,  494,  495,  496
  497,  498,  499,  500,  501,  502,  503,  504,  505,  506,  507,  508,  509,  510,  511,  512
  513,  514,  515,  516,  517,  518,  519,  520,  521,  522,  523,  524,  525,  526,  527,  528
  529,  530,  531,  532,  533,  534,  535,  536,  537,  538,  539,  540,  541,  542,  543,  544
  545,  546,  547,  548,  549,  550,  551,  552,  553,  554,  555,  556,  557,  558,  559,  560
  561,  562,  563,  564,  565,  566,  567,  568,  569,  570,  571,  572,  573,  574,  575,  576
  577,  578,  579,  580,  581,  582,  583,  584,  585,  586,  587,  588,  589,  590,  591,  592
  593,  594,  595,  596,  597,  598,  599,  600,  601,  602,  603,  604,  605,  606,  607,  608
  609,  610,  611,  612,  613,  614,  615,  616,  617,  618,  619,  620,  621,  622,  623,  624
  801,  802,  803,  804,  805,  806,  807,  808,  809,  810,  811,  812,  813,  814,  815,  816
  817,  818,  819,  820,  821,  822,  823,  824,  825,  826,  827,  828,  829,  830,  831,  832
  833,  834,  835,  836,  837,  838,  839,  840,  841,  842,  843,  844,  845,  846,  847,  848
  849,  850,  851,  852,  853,  854,  855,  856,  857,  858,  859,  860,  861,  862,  863,  864
** ... 304 like lines cut
*Nset, nset=Set-2
    1,    2,    3,    4,    5,    6,    7,    8,    9,   10,   11,   12,   13,   14,   15,   16
   17,   18,   19,   20,   21,   22,   23,   24,   25,   26,   27,   28,   30,   32,   33,   34
   35,   36,   37,   38,   39,   40,   41,   42,   43,   44,   45,   46,   47,   48,   49,   50
   51,   52,   53,   54,   55,   56,   57,   58,   61,   64,   65,   66,   67,   68,   69,   70
   73,   74,   75,   76,   77,   78,   79,   80,   81,   82,   83,   84,   85,   86,   87,   88
   89,   90,   91,   92,   93,   94,   95,   96,   97,   98,   99,  100,  101,  102,  103,  104
  105,  106,  107,  108,  109,  110,  111,  112,  113,  114,  115,  116,  117,  118,  119,  120
  121,  122,  123,  124,  125,  126,  127,  128,  129,  130,  131,  132,  133,  134,  135,  136
  137,  138,  139,  140,  141,  142,  143,  144,  145,  146,  147,  148,  149,  150,  151,  152
  153,  154,  155,  156,  157,  158,  159,  160,  161,  162,  163,  164,  165,  166,  167,  168
  169,  170,  171,  172,  173,  174,  175,  176,  177,  178,  179,  180,  181,  182,  183,  184
  185,  186,  187,  188,  189,  190,  191,  192,  193,  194,  195,  196,  197,  198,  199,  200
  201,  202,  203,  204,  205,  206,  207,  208,  209,  210,  211,  212,  213,  214,  215,  216
  217,  218,  219,  220,  221,  222,  223,  224,  225,  226,  227,  228,  229,  230,  231,  232
  233,  234,  235,  236,  237,  238,  239,  240,  241,  242,  243,  244,  245,  246,  247,  248
  249,  250,  251,  252,  253,  254,  255,  256,  257,  258,  259,  260,  261,  262,  263,  264
  265,  266,  267,  268,  269,  270,  271,  272,  273,  274,  275,  276,  277,  278,  279,  280
  281,  282,  283,  284,  285,  286,  287,  288,  289,  290,  291,  292,  293,  294,  309,  310
  311,  312,  313,  314,  315,  330,  331,  332,  333,  334,  335,  336,  337,  338,  339,  343
  344,  345,  346,  347,  348,  349,  350,  351,  352,  353,  354,  355,  356,  357,  358,  359
** ... 123 like lines cut
*Elset, elset=Set-2
    1,    2,    3,    4,    5,    6,    7,    8,    9,   10,   11,   12,   13,   14,   15,   16
   17,   18,   19,   20,   21,   22,   23,   24,   25,   26,   27,   28,   29,   30,   31,   32
   33,   34,   35,   36,   37,   38,   39,   40,   41,   42,   43,   44,   45,   46,   47,   48
   49,   50,   51,   52,   53,   54,   55,   56,   57,   58,   59,   60,   61,   62,   63,   64
   65,   66,   67,   68,   69,   70,   71,   72,   73,   74,   75,   76,   77,   78,   79,   80
   81,   82,   83,   84,   85,   86,   87,   88,   89,   90,   91,   92,   93,   94,   95,   96
   97,   98,   99,  100,  101,  102,  103,  104,  105,  106,  107,  108,  109,  110,  111,  112
  113,  114,  115,  116,  117,  118,  119,  120,  121,  122,  123,  124,  125,  126,  127,  128
  129,  130,  131,  132,  133,  134,  135,  136,  137,  138,  139,  140,  141,  142,  143,  144
  145,  146,  147,  148,  149,  150,  151,  152,  153,  154,  155,  156,  157,  158,  159,  160
  161,  162,  163,  164,  165,  166,  167,  168,  169,  170,  171,  172,  173,  174,  175,  176
  177,  178,  179,  180,  181,  182,  183,  184,  185,  186,  187,  188,  189,  190,  191,  192
  193,  194,  195,  196,  197,  198,  199,  200,  201,  202,  203,  204,  205,  206,  207,  208
  209,  210,  211,  212,  213,  214,  215,  216,  217,  218,  219,  220,  221,  222,  223,  224
  225,  226,  227,  228,  229,  230,  231,  232,  233,  234,  235,  236,  237,  238,  239,  240
  241,  242,  243,  244,  245,  246,  247,  248,  249,  250,  251,  252,  253,  254,  255,  256
  257,  258,  259,  260,  261,  262,  263,  264,  265,  266,  267,  268,  269,  270,  271,  272
  273,  274,  275,  276,  277,  278,  279,  280,  281,  282,  283,  284,  285,  286,  287,  288
  289,  290,  291,  292,  293,  294,  295,  296,  297,  298,  299,  300,  301,  302,  303,  304
  305,  306,  307,  308,  309,  310,  311,  312,  313,  314,  315,  316,  317,  318,  319,  320
** ... 56 like lines cut
** Section: Elas
*Solid Section, elset=Set-2, material=Elas
,
** Section: Base
*Solid Section, elset=Set-1, material=Weak_base
,
*End Part
**  
**
** ASSEMBLY
**
*Assembly, name=Assembly
**  
*Instance, name=Part-composite-1, part=Part-composite
*End Instance
**  
*Nset, nset=Set-X, instance=Part-composite-1
   21,   22,   23,   24,   29,   30,   31,   32,   57,   58,   59,   60,  229,  245,  253,  254
  255,  256,  257,  258,  302,  303,  304,  305,  306,  307,  308,  323,  324,  325,  326,  327
  328,  329,  337,  338,  339,  340,  341,  342,  730,  731,  732,  733,  734,  735,  736,  737
  738,  739,  740,  741,  742,  743,  744,  745,  746,  747,  748,  756,  757,  758,  759,  760
  761,  762,  763,  764,  765,  766,  767,  768,  769,  770,  771,  772,  773,  774,  775,  776
  777,  785,  786,  787,  788,  789,  790,  791,  799,  800,  801,  802,  803,  804,  805,  806
  807,  808,  809,  810, 1311, 1312, 1313, 1513, 1514, 1515, 1516, 1517, 1518, 1519, 1520, 1521
 1522, 1523, 1524, 1525, 1526, 1527, 1528, 1529, 1530, 1531, 1532, 1533, 3414, 3415, 3416, 3417
 3418, 3419, 3420, 3421, 3422, 3423, 3424, 3425, 3426, 3427, 3428, 3429, 3430, 3431, 3432, 3433
 3434, 3435, 3436, 3437, 3438, 3439, 3440, 3441, 3442, 3443, 3444, 3445, 3446, 3447, 3448, 3449
 3450, 3451, 3452, 3453, 3454, 3455, 3456, 3457, 3458, 3459, 3460, 3461, 3462, 3463, 3464, 3465
 3466, 3467, 3468, 3469, 3470, 3611, 3612, 3613, 3614, 3615, 3616, 3617, 3618, 3619, 3620, 3621
 3622, 3623, 3624, 3625, 3626, 3627, 3628, 3629, 3630, 3631, 3684, 3685, 3686
*Elset, elset=Set-X, instance=Part-composite-1
  255,  256,  271,  272,  287,  288,  303,  304,  425,  426,  427,  428,  429,  430,  431,  432
  489,  490,  491,  492,  493,  494,  495,  496,  553,  554,  555,  556,  557,  558,  559,  560
  617,  618,  619,  620,  621,  622,  623,  624, 3361, 3369, 3377, 3385, 3393, 3401, 3409, 3417
 3425, 3433, 3441, 3449, 3457, 3465, 3473, 3481, 3489, 3497, 3505, 3513, 3521, 3529, 3537, 3545
 3553, 3561, 3569, 3577, 3585, 3593, 3601, 3609, 3617, 3625, 3633, 3641, 3649, 3657, 3665, 3673
 3681, 3689, 3697, 3705, 3713, 3721, 3729, 3737, 3745, 3753, 3761, 3769, 3777, 3785, 3793, 3801
 3809, 3817, 3825, 3833, 3841, 3849, 3857, 3865, 3873, 3881, 3889, 3897, 3905, 3913, 3921, 3929
 3937, 3945, 3953, 3961, 3969, 3977, 3985, 3993, 4057, 4058, 4059, 4060, 4061, 4062, 4063, 4064
 4121, 4122, 4123, 4124, 4125, 4126, 4127, 4128, 4185, 4186, 4187, 4188, 4189, 4190, 4191, 4192
 4249, 4250, 4251, 4252, 4253, 4254, 4255, 4256, 4417, 4425, 4433, 4441, 4449, 4457, 4465, 4473
*Nset, nset=Set-y, instance=Part-composite-1
   25,   26,   27,   28,   29,   31,   43,   45,   47,   48,   62,   63,  273,  288,  289,  290
  291,  292,  293,  294,  295,  296,  297,  298,  299,  300,  301,  316,  317,  318,  319,  320
  321,  322,  340,  341,  342,  619,  635,  636,  637,  638,  639,  640,  641,  818,  819,  820
  821,  822,  823,  824,  839,  840,  841,  842,  843,  844,  845,  853,  854,  855,  859,  860
  861,  862,  863,  864,  865,  866,  867,  868,  869,  870,  871,  872,  873,  874,  875,  876
  877,  878,  879,  880,  881,  882,  883,  884,  885,  886,  887,  888,  889,  890,  891,  892
  893,  894,  895,  896, 1328, 1329, 1330, 1492, 1493, 1494, 1495, 1496, 1497, 1498, 1499, 1500
 1501, 1502, 1503, 1504, 1505, 1506, 1507, 1508, 1509, 1510, 1511, 1512, 2945, 2946, 2947, 3827
 3828, 3829, 3830, 3831, 3832, 3833, 3834, 3835, 3836, 3837, 3838, 3839, 3840, 3841, 3842, 3843
 3844, 3845, 3846, 3847, 4114, 4115, 4116, 4117, 4118, 4119, 4120, 4121, 4122, 4123, 4124, 4125
 4126, 4127, 4128, 4129, 4130, 4131, 4132, 4133, 4134, 4135, 4136, 4137, 4138, 4139, 4140, 4141
 4142, 4143, 4144, 4145, 4146, 4147, 4148, 4149, 4150, 4151, 4152, 4153, 4154, 4155, 4156, 4157
 4158, 4159, 4160, 4161, 4162, 4163, 4164, 4165, 4166, 4167, 4168, 4169, 4170
*Elset, elset=Set-y, instance=Part-composite-1
  305,  313,  321,  329,  337,  345,  353,  361,  376,  384,  392,  400,  408,  416,  424,  432
  440,  448,  456,  464,  472,  480,  488,  496,  504,  512,  520,  528,  536,  544,  552,  560
  568,  576,  584,  592,  600,  608,  616,  624, 3041, 3049, 3057, 3065, 3073, 3081, 3089, 3097
 4537, 4538, 4539, 4540, 4541, 4542, 4543, 4544, 4601, 4602, 4603, 4604, 4605, 4606, 4607, 4608
 4665, 4666, 4667, 4668, 4669, 4670, 4671, 4672, 4729, 4730, 4731, 4732, 4733, 4734, 4735, 4736
 4744, 4752, 4760, 4768, 4776, 4784, 4792, 4800, 4808, 4816, 4824, 4832, 4840, 4848, 4856, 4864
 4872, 4880, 4888, 4896, 4904, 4912, 4920, 4928, 4936, 4944, 4952, 4960, 4968, 4976, 4984, 4992
 5000, 5008, 5016, 5024, 5032, 5040, 5048, 5056, 5064, 5072, 5080, 5088, 5096, 5104, 5112, 5120
 5128, 5136, 5144, 5152, 5160, 5168, 5176, 5184, 5192, 5200, 5208, 5216, 5224, 5232, 5240, 5248
 5256, 5264, 5272, 5280, 5288, 5296, 5304, 5312, 5320, 5328, 5336, 5344, 5352, 5360, 5368, 5376
*Nset, nset=Set-3, instance=Part-composite-1
   61,   62,   63,   64,   65,   66,   67,   68,   69,   70,   71,   72,  825,  826,  827,  828
  829,  830,  831,  846,  847,  848,  849,  850,  851,  852,  853,  854,  855,  856,  857,  858
  897,  898,  899,  900,  901,  916,  917,  918,  919,  920,  921,  922,  923,  952,  953,  954
  955,  956,  957,  958,  959,  960,  961,  962,  963,  964,  965,  966,  967,  968,  983,  984
  985,  986,  987,  988,  989,  990,  991,  992,  993,  994,  995,  996,  997,  998,  999, 1000
 1001, 1002, 1003, 1004, 1005, 1006, 1007, 1008, 1009, 1010, 1011, 1012, 1013, 1014, 1015, 1016
 1017, 1018, 1019, 1020, 3785, 3786, 3787, 3788, 3789, 3790, 3791, 3792, 3793, 3794, 3795, 3796
 3797, 3798, 3799, 3800, 3801, 3802, 3803, 3804, 3805, 4171, 4172, 4173, 4209, 4210, 4211, 4268
 4269, 4270, 4271, 4272, 4273, 4274, 4275, 4276, 4277, 4278, 4279, 4280, 4281, 4282, 4283, 4284
 4285, 4286, 4287, 4288, 4408, 4409, 4410, 4411, 4412, 4413, 4414, 4415, 4416, 4417, 4418, 4419
 4420, 4421, 4422, 4423, 4424, 4425, 4426, 4427, 4428, 4429, 4430, 4431, 4432, 4433, 4434, 4435
 4436, 4437, 4438, 4439, 4440, 4441, 4442, 4443, 4444, 4445, 4446, 4447, 4448, 4449, 4450, 4451
 4452, 4453, 4454, 4455, 4456, 4457, 4458, 4459, 4460, 4461, 4462, 4463, 4464
*Elset, elset=Set-3, instance=Part-composite-1
 4481, 4489, 4497, 4505, 4513, 4521, 4529, 4537, 4545, 4553, 4561, 4569, 4577, 4585, 4593, 4601
 4609, 4617, 4625, 4633, 4641, 4649, 4657, 4665, 4673, 4681, 4689, 4697, 4705, 4713, 4721, 4729
 5433, 5434, 5435, 5436, 5437, 5438, 5439, 5440, 5497, 5498, 5499, 5500, 5501, 5502, 5503, 5504
 5729, 5730, 5731, 5732, 5733, 5734, 5735, 5736, 5737, 5738, 5739, 5740, 5741, 5742, 5743, 5744
 5745, 5746, 5747, 5748, 5749, 5750, 5751, 5752, 5753, 5754, 5755, 5756, 5757, 5758, 5759, 5760
 6321, 6322, 6323, 6324, 6325, 6326, 6327, 6328, 6329, 6330, 6331, 6332, 6333, 6334, 6335, 6336
 6337, 6338, 6339, 6340, 6341, 6342, 6343, 6344, 6345, 6346, 6347, 6348, 6349, 6350, 6351, 6352
 6353, 6354, 6355, 6356, 6357, 6358, 6359, 6360, 6361, 6362, 6363, 6364, 6365, 6366, 6367, 6368
 6369, 6370, 6371, 6372, 6373, 6374, 6375, 6376, 6377, 6378, 6379, 6380, 6381, 6382, 6383, 6384
 6385, 6386, 6387, 6388, 6389, 6390, 6391, 6392, 6393, 6394, 6395, 6396, 6397, 6398, 6399, 6400
*Nset, nset=Set-4, instance=Part-composite-1
    9,   12,   15,   16,   37,   39,   55,   56,   59,   60,   71,   72,  108,  124,  125,  126
  127,  128,  129,  130,  429,  430,  431,  432,  433,  434,  435,  436,  437,  438,  439,  440
  441,  442,  443,  444,  445,  446,  447,  474,  475,  476,  477,  478,  479,  480,  481,  482
  483,  484,  485,  486,  487,  488,  489,  490,  491,  492,  522,  523,  524,  673,  681,  682
  683,  684,  778,  779,  780,  781,  782,  783,  784,  792,  793,  794,  795,  796,  797,  798
  806,  807,  808,  959,  960,  961,  969,  970,  971,  972,  973,  974,  975,  976,  977,  978
  979,  980,  981,  982, 1049, 1050, 1051, 2017, 2018, 2019, 2020, 2021, 2022, 2023, 2024, 2025
 2026, 2027, 2028, 2029, 2030, 2031, 2032, 2033, 2034, 2035, 2036, 2037, 2038, 2039, 2040, 2041
 2042, 2043, 2044, 2045, 2046, 2047, 2048, 2049, 2050, 2051, 2052, 2053, 2054, 2055, 2056, 2057
 2058, 2059, 2060, 2061, 2062, 2063, 2064, 2065, 2066, 2067, 2068, 2069, 2070, 2071, 2072, 2073
 3029, 3030, 3031, 3590, 3591, 3592, 3593, 3594, 3595, 3596, 3597, 3598, 3599, 3600, 3601, 3602
 3603, 3604, 3605, 3606, 3607, 3608, 3609, 3610, 4387, 4388, 4389, 4390, 4391, 4392, 4393, 4394
 4395, 4396, 4397, 4398, 4399, 4400, 4401, 4402, 4403, 4404, 4405, 4406, 4407
*Elset, elset=Set-4, instance=Part-composite-1
   17,   25,   33,   41,   49,   57,   65,   73,  808,  816,  824,  832,  840,  848,  856,  864
  872,  880,  888,  896,  904,  912,  920,  928,  936,  944,  952,  960,  968,  976,  984,  992
 1000, 1008, 1016, 1024, 1032, 1040, 1048, 1056, 1064, 1072, 1080, 1088, 1096, 1104, 1112, 1120
 1128, 1136, 1144, 1152, 1160, 1168, 1176, 1184, 1192, 1200, 1208, 1216, 1224, 1232, 1240, 1248
 1256, 1264, 1272, 1280, 1288, 1296, 1304, 1312, 1320, 1328, 1336, 1344, 1352, 1360, 1368, 1376
 1384, 1392, 1400, 1408, 1416, 1424, 1432, 1440, 3137, 3145, 3153, 3161, 3169, 3177, 3185, 3193
 4008, 4016, 4024, 4032, 4040, 4048, 4056, 4064, 4072, 4080, 4088, 4096, 4104, 4112, 4120, 4128
 4136, 4144, 4152, 4160, 4168, 4176, 4184, 4192, 4200, 4208, 4216, 4224, 4232, 4240, 4248, 4256
 5533, 5534, 5535, 5536, 5565, 5566, 5567, 5568, 5597, 5598, 5599, 5600, 5629, 5630, 5631, 5632
 5661, 5662, 5663, 5664, 5693, 5694, 5695, 5696, 5725, 5726, 5727, 5728, 5757, 5758, 5759, 5760
*Elset, elset=_Surf-X_S1, internal, instance=Part-composite-1
 5433, 5434, 5435, 5436, 5437, 5438, 5439, 5440, 5497, 5498, 5499, 5500, 5501, 5502, 5503, 5504
 5729, 5730, 5731, 5732, 5733, 5734, 5735, 5736, 5737, 5738, 5739, 5740, 5741, 5742, 5743, 5744
 5745, 5746, 5747, 5748, 5749, 5750, 5751, 5752, 5753, 5754, 5755, 5756, 5757, 5758, 5759, 5760
 6321, 6322, 6323, 6324, 6325, 6326, 6327, 6328, 6329, 6330, 6331, 6332, 6333, 6334, 6335, 6336
 6337, 6338, 6339, 6340, 6341, 6342, 6343, 6344, 6345, 6346, 6347, 6348, 6349, 6350, 6351, 6352
 6353, 6354, 6355, 6356, 6357, 6358, 6359, 6360, 6361, 6362, 6363, 6364, 6365, 6366, 6367, 6368
 6369, 6370, 6371, 6372, 6373, 6374, 6375, 6376, 6377, 6378, 6379, 6380, 6381, 6382, 6383, 6384
 6385, 6386, 6387, 6388, 6389, 6390, 6391, 6392, 6393, 6394, 6395, 6396, 6397, 6398, 6399, 6400
*Elset, elset=_Surf-X_S6, internal, instance=Part-composite-1, generate
 4481,  4729,     8
*Surface, type=ELEMENT, name=Surf-X
_Surf-X_S1, S1
_Surf-X_S6, S6
*Elset, elset=_Surf-Y_S6, internal, instance=Part-composite-1
   17,   25,   33,   41,   49,   57,   65,   73, 3137, 3145, 3153, 3161, 3169, 3177, 3185, 3193
*Elset, elset=_Surf-Y_S4, internal, instance=Part-composite-1
  808,  816,  824,  832,  840,  848,  856,  864,  872,  880,  888,  896,  904,  912,  920,  928
  936,  944,  952,  960,  968,  976,  984,  992, 1000, 1008, 1016, 1024, 1032, 1040, 1048, 1056
 1064, 1072, 1080, 1088, 1096, 1104, 1112, 1120, 1128, 1136, 1144, 1152, 1160, 1168, 1176, 1184
 1192, 1200, 1208, 1216, 1224, 1232, 1240, 1248, 1256, 1264, 1272, 1280, 1288, 1296, 1304, 1312
 1320, 1328, 1336, 1344, 1352, 1360, 1368, 1376, 1384, 1392, 1400, 1408, 1416, 1424, 1432, 1440
 4008, 4016, 4024, 4032, 4040, 4048, 4056, 4064, 4072, 4080, 4088, 4096, 4104, 4112, 4120, 4128
 4136, 4144, 4152, 4160, 4168, 4176, 4184, 4192, 4200, 4208, 4216, 4224, 4232, 4240, 4248, 4256
*Elset, elset=_Surf-Y_S5, internal, instance=Part-composite-1
 5533, 5534, 5535, 5536, 5565, 5566, 5567, 5568, 5597, 5598, 5599, 5600, 5629, 5630, 5631, 5632
 5661, 5662, 5663, 5664, 5693, 5694, 5695, 5696, 5725, 5726, 5727, 5728, 5757, 5758, 5759, 5760
*Surface, type=ELEMENT, name=Surf-Y
_Surf-Y_S6, S6
_Surf-Y_S4, S4
_Surf-Y_S5, S5
*End Assembly
** 
** MATERIALS
** 
*Material, name=Elas
*Elastic
 5e+10, 0.3
*Material, name=Weak_base
*Depvar
     65,
*User Material, constants=9
 3.5e+10,  0.25,  120., 0.001,  234.,  123., 2e-05,   20.
   24.,
** 
** BOUNDARY CONDITIONS
** 
** Name: BC-x Type: Symmetry/Antisymmetry/Encastre
*Boundary
Set-X, XSYMM
** Name: BC-y Type: Symmetry/Antisymmetry/Encastre
*Boundary
Set-y, YSYMM
** ----------------------------------------------------------------
** 
** STEP: Step-1
** 
*Step, name=Step-1, nlgeom=YES, inc=1000000
*Static
0.001, 1., 1e-20, 0.005
** 
** BOUNDARY CONDITIONS
** 
** Name: BC-3 Type: Displacement/Rotation
*Boundary
Set-3, 1, 1
** Name: BC-4 Type: Displacement/Rotation
*Boundary
Set-4, 2, 2, 5e-05
** 
** CONTROLS
** 
*Controls, reset
*Controls, parameters=time incrementation
, , , , , , , 15, , , 
** 
** OUTPUT REQUESTS
** 
*Restart, write, frequency=10
** 
** FIELD OUTPUT: F-Output-1
** 
*Output, field, frequency=10
*Node Output
U, 
*Element Output, directions=YES
E, S, SDV
** 
** HISTORY OUTPUT: H-Output-1
** 
*Output, history, variable=PRESELECT
*End Step
