*Heading
** Job name: Dir_ten Model name: Model-tension-noCZM
** Generated by: Abaqus/CAE 6.12-1
*Preprint, echo=NO, model=NO, history=NO, contact=NO
**
** PARTS
**
*Part, name=Bottom
*Node
   6002,           0., 0.0250000004, 0.0299999993
   6003,           0.,           0., 0.0299999993
   6004, 0.0250000004,           0., 0.0299999993
   6005, 0.0250000004, 0.0250000004, 0.0299999993
   6006,           0., 0.0230769236, 0.0299999993
   6007,           0., 0.0211538468, 0.0299999993
   6008,           0., 0.0192307699, 0.0299999993
   6009,           0., 0.0173076931, 0.0299999993
   6010,           0., 0.0153846154, 0.0299999993
   6011,           0., 0.0134615386, 0.0299999993
   6012,           0., 0.0115384618, 0.0299999993
   6013,           0., 0.00961538497, 0.0299999993
   6014,           0., 0.0076923077, 0.0299999993
   6015,           0., 0.00576923089, 0.0299999993
   6016,           0., 0.00384615385, 0.0299999993
   6017,           0., 0.00192307692, 0.0299999993
   6018, 0.00192307692,           0., 0.0299999993
   6019, 0.00384615385,           0., 0.0299999993
   6020, 0.00576923089,           0., 0.0299999993
   6021, 0.0076923077,           0., 0.0299999993
** ... 5983 like lines cut
*Element, type=C3D8
5239, 6507, 6973, 8677, 6877, 6394, 6416, 6773, 6449
5240, 6973, 6974, 8678, 8677, 6416, 6417, 6774, 6773
5241, 6974, 6975, 8679, 8678, 6417, 6418, 6775, 6774
5242, 6975, 6976, 8680, 8679, 6418, 6419, 6776, 6775
5243, 6976, 6977, 8681, 8680, 6419, 6420, 6777, 6776
5244, 6977, 6978, 8682, 8681, 6420, 6421, 6778, 6777
5245, 6978, 6979, 8683, 8682, 6421, 6422, 6779, 6778
5246, 6979, 6980, 8684, 8683, 6422, 6423, 6780, 6779
5247, 6980, 6981, 8685, 8684, 6423, 6424, 6781, 6780
5248, 6981, 6982, 8686, 8685, 6424, 6425, 6782, 6781
5249, 6982, 6983, 8687, 8686, 6425, 6426, 6783, 6782
5250, 6983, 6984, 8688, 8687, 6426, 6427, 6784, 6783
5251, 6984, 6985, 8689, 8688, 6427, 6428, 6785, 6784
5252, 6985, 6520, 6925, 8689, 6428, 6395, 6429, 6785
5253, 6877, 8677, 8690, 6878, 6449, 6773, 6786, 6448
5254, 8677, 8678, 8691, 8690, 6773, 6774, 6787, 6786
5255, 8678, 8679, 8692, 8691, 6774, 6775, 6788, 6787
5256, 8679, 8680, 8693, 8692, 6775, 6776, 6789, 6788
5257, 8680, 8681, 8694, 8693, 6776, 6777, 6790, 6789
5258, 8681, 8682, 8695, 8694, 6777, 6778, 6791, 6790
** ... 4685 like lines cut
*Nset, nset=Set-1, generate
  6394,  12004,      1
*Elset, elset=Set-1, generate
 5239,  9943,     1
** Section: concrete
*Solid Section, elset=Set-1, material=Concrete_com
,
*End Part
**  
**
** ASSEMBLY
**
*Assembly, name=Assembly
**  
*Instance, name=Bottom-1, part=Bottom
*End Instance
**  
*Nset, nset=Set-y, instance=Bottom-1
 6403, 6404, 6405, 6406, 6410, 6411, 6413, 6414, 6548, 6549, 6550, 6551, 6580, 6581, 6582, 6583
 6596, 6597, 6598, 6599, 6600, 6601, 6602, 6603, 6604, 6605, 6606, 6607, 6608, 6622, 6623, 6624
 6625, 6626, 6627, 6628, 6629, 6630, 6631, 6632, 6633, 6634, 6676, 6677, 6678, 6679, 6680, 6681
 6682, 6683, 6684, 6685, 6686, 6687, 6688, 6701, 6702, 6703, 6704, 6705, 6706, 6707, 6708, 6709
 6710, 6711, 6712, 6713, 6714, 6715, 6716, 6717, 6718, 6719, 6720, 6721, 6722, 6723, 6724, 6737
 6738, 6739, 6740, 6741, 6742, 6743, 6744, 6745, 6746, 6747, 6748, 7745, 7746, 7747, 7748, 7749
 7750, 7751, 7752, 7753, 7754, 7755, 7756, 7757, 7758, 7759, 7760, 7761, 7762, 7763, 7764, 7765
 7766, 7767, 7768, 7769, 7770, 7771, 7772, 7773, 7774, 7775, 7776, 7777, 7778, 7779, 7780, 7781
 7782, 7783, 7784, 7785, 7786, 7787, 7788, 7789, 7790, 7791, 7792, 7793, 7794, 7795, 7796, 8377
 8378, 8379, 8380, 8381, 8382, 8383, 8384, 8385, 8386, 8387, 8388, 8389, 8390, 8391, 8392, 8393
 8394, 8395, 8396, 8397, 8398, 8399, 8400, 8401, 8402, 8403, 8404, 8405, 8406, 8407, 8408, 8409
 8410, 8411, 8412, 8413, 8414, 8415, 8416, 8417, 8418, 8419, 8420, 8421, 8422, 8423, 8424, 8425
 8426, 8427, 8428, 8429, 8430, 8431, 8432, 8433, 8434, 8435, 8436, 8437, 8438, 8439, 8440, 8441
 8442, 8443, 8444, 8445, 8446, 8447, 8448, 8449, 8450, 8451, 8452, 8453, 8454, 8455, 8456, 8457
 8458, 8459, 8460, 8461, 8462, 8463, 8464, 8465, 8466, 8467, 8468, 8469, 8470, 8471, 8472, 8473
 8474, 8475, 8476, 8477, 8478, 8479, 8480, 8481, 8482, 8483, 8484, 8485, 8486, 8487, 8488, 8489
 8490, 8491, 8492, 8493, 8494, 8495, 8496, 8497, 8498, 8499, 8500, 8501, 8502, 8503, 8504, 8505
 8506, 8507, 8508, 8509, 8510, 8511, 8512, 8513, 8514, 8515, 8516, 8517, 8518, 8519, 8520, 8521
 8522, 8523, 8524, 8525, 8526, 8527, 8528, 8529, 8530, 8531, 8532
*Elset, elset=Set-y, instance=Bottom-1
 6209, 6210, 6211, 6212, 6213, 6274, 6275, 6276, 6277, 6278, 6339, 6340, 6341, 6342, 6343, 6404
 6405, 6406, 6407, 6408, 6469, 6470, 6471, 6472, 6473, 6534, 6535, 6536, 6537, 6538, 6599, 6600
 6601, 6602, 6603, 6664, 6665, 6666, 6667, 6668, 6729, 6730, 6731, 6732, 6733, 6794, 6795, 6796
 6797, 6798, 6859, 6860, 6861, 6862, 6863, 6924, 6925, 6926, 6927, 6928, 6989, 6990, 6991, 6992
 6993, 7054, 7055, 7056, 7057, 7058, 7577, 7578, 7579, 7580, 7581, 7582, 7583, 7584, 7585, 7586
 7587, 7588, 7589, 7590, 7759, 7760, 7761, 7762, 7763, 7764, 7765, 7766, 7767, 7768, 7769, 7770
 7771, 7772, 7941, 7942, 7943, 7944, 7945, 7946, 7947, 7948, 7949, 7950, 7951, 7952, 7953, 7954
 8123, 8124, 8125, 8126, 8127, 8128, 8129, 8130, 8131, 8132, 8133, 8134, 8135, 8136, 8305, 8306
 8307, 8308, 8309, 8310, 8311, 8312, 8313, 8314, 8315, 8316, 8317, 8318, 8487, 8488, 8489, 8490
 8491, 8492, 8493, 8494, 8495, 8496, 8497, 8498, 8499, 8500, 8669, 8670, 8671, 8672, 8673, 8674
 8675, 8676, 8677, 8678, 8679, 8680, 8681, 8682, 8851, 8852, 8853, 8854, 8855, 8856, 8857, 8858
 8859, 8860, 8861, 8862, 8863, 8864, 9033, 9034, 9035, 9036, 9037, 9038, 9039, 9040, 9041, 9042
 9043, 9044, 9045, 9046, 9215, 9216, 9217, 9218, 9219, 9220, 9221, 9222, 9223, 9224, 9225, 9226
 9227, 9228, 9397, 9398, 9399, 9400, 9401, 9402, 9403, 9404, 9405, 9406, 9407, 9408, 9409, 9410
 9579, 9580, 9581, 9582, 9583, 9584, 9585, 9586, 9587, 9588, 9589, 9590, 9591, 9592, 9761, 9762
 9763, 9764, 9765, 9766, 9767, 9768, 9769, 9770, 9771, 9772, 9773, 9774, 9787, 9800, 9813, 9826
 9839, 9852, 9865, 9878, 9891, 9904, 9917, 9930, 9943
*Nset, nset=Set-X, instance=Bottom-1
 6394, 6395, 6396, 6397, 6410, 6411, 6412, 6413, 6416, 6417, 6418, 6419, 6420, 6421, 6422, 6423
 6424, 6425, 6426, 6427, 6428, 6429, 6430, 6431, 6432, 6433, 6434, 6435, 6436, 6437, 6438, 6439
 6440, 6441, 6442, 6443, 6444, 6445, 6446, 6447, 6448, 6449, 6664, 6665, 6666, 6667, 6668, 6669
 6670, 6671, 6672, 6673, 6674, 6675, 6676, 6677, 6678, 6679, 6680, 6681, 6682, 6683, 6684, 6685
 6686, 6687, 6688, 6689, 6690, 6691, 6692, 6693, 6694, 6695, 6696, 6697, 6698, 6699, 6700, 6725
 6726, 6727, 6728, 6729, 6730, 6731, 6732, 6733, 6734, 6735, 6736, 6773, 6774, 6775, 6776, 6777
 6778, 6779, 6780, 6781, 6782, 6783, 6784, 6785, 6786, 6787, 6788, 6789, 6790, 6791, 6792, 6793
 6794, 6795, 6796, 6797, 6798, 6799, 6800, 6801, 6802, 6803, 6804, 6805, 6806, 6807, 6808, 6809
 6810, 6811, 6812, 6813, 6814, 6815, 6816, 6817, 6818, 6819, 6820, 6821, 6822, 6823, 6824, 7933
 7934, 7935, 7936, 7937, 7938, 7939, 7940, 7941, 7942, 7943, 7944, 7945, 7946, 7947, 7948, 7949
 7950, 7951, 7952, 7953, 7954, 7955, 7956, 7957, 7958, 7959, 7960, 7961, 7962, 7963, 7964, 7965
 7966, 7967, 7968, 7969, 7970, 7971, 7972, 7973, 7974, 7975, 7976, 7977, 7978, 7979, 7980, 7981
 7982, 7983, 7984, 7985, 7986, 7987, 7988, 7989, 7990, 7991, 7992, 7993, 7994, 7995, 7996, 7997
 7998, 7999, 8000, 8001, 8002, 8003, 8004, 8005, 8006, 8007, 8008, 8009, 8010, 8011, 8012, 8013
 8014, 8015, 8016, 8017, 8018, 8019, 8020, 8021, 8022, 8023, 8024, 8025, 8026, 8027, 8028, 8029
 8030, 8031, 8032, 8033, 8034, 8035, 8036, 8037, 8038, 8039, 8040, 8041, 8042, 8043, 8044, 8045
 8046, 8047, 8048, 8049, 8050, 8051, 8052, 8053, 8054, 8055, 8056, 8057, 8058, 8059, 8060, 8061
 8062, 8063, 8064, 8065, 8066, 8067, 8068, 8069, 8070, 8071, 8072, 8073, 8074, 8075, 8076, 8077
 8078, 8079, 8080, 8081, 8082, 8083, 8084, 8085, 8086, 8087, 8088
*Elset, elset=Set-X, instance=Bottom-1
 5239, 5240, 5241, 5242, 5243, 5244, 5245, 5246, 5247, 5248, 5249, 5250, 5251, 5252, 5253, 5254
 5255, 5256, 5257, 5258, 5259, 5260, 5261, 5262, 5263, 5264, 5265, 5266, 5267, 5268, 5269, 5270
 5271, 5272, 5273, 5274, 5275, 5276, 5277, 5278, 5279, 5280, 5281, 5282, 5283, 5284, 5285, 5286
 5287, 5288, 5289, 5290, 5291, 5292, 5293, 5294, 5295, 5296, 5297, 5298, 5299, 5300, 5301, 5302
 5303, 5304, 5305, 5306, 5307, 5308, 7409, 7410, 7411, 7412, 7413, 7414, 7415, 7416, 7417, 7418
 7419, 7420, 7421, 7422, 7423, 7424, 7425, 7426, 7427, 7428, 7429, 7430, 7431, 7432, 7433, 7434
 7435, 7436, 7437, 7438, 7439, 7440, 7441, 7442, 7443, 7444, 7445, 7446, 7447, 7448, 7449, 7450
 7451, 7452, 7453, 7454, 7455, 7456, 7457, 7458, 7459, 7460, 7461, 7462, 7463, 7464, 7465, 7466
 7467, 7468, 7469, 7470, 7471, 7472, 7473, 7474, 7475, 7476, 7477, 7478, 7479, 7480, 7481, 7482
 7483, 7484, 7485, 7486, 7487, 7488, 7489, 7490, 7491, 7492, 7493, 7494, 7495, 7496, 7497, 7498
 7499, 7500, 7501, 7502, 7503, 7504, 7505, 7506, 7507, 7508, 7509, 7510, 7511, 7512, 7513, 7514
 7515, 7516, 7517, 7518, 7519, 7520, 7521, 7522, 7523, 7524, 7525, 7526, 7527, 7528, 7529, 7530
 7531, 7532, 7533, 7534, 7535, 7536, 7537, 7538, 7539, 7540, 7541, 7542, 7543, 7544, 7545, 7546
 7547, 7548, 7549, 7550, 7551, 7552, 7553, 7554, 7555, 7556, 7557, 7558, 7559, 7560, 7561, 7562
 7563, 7564, 7565, 7566, 7567, 7568, 7569, 7570, 7571, 7572, 7573, 7574, 7575, 7576, 7577, 7578
 7579, 7580, 7581, 7582, 7583, 7584, 7585, 7586, 7587, 7588, 7589, 7590, 9775, 9776, 9777, 9778
 9779, 9780, 9781, 9782, 9783, 9784, 9785, 9786, 9787
*Nset, nset=Set-bottom, instance=Bottom-1
 6412, 6413, 6414, 6415, 6725, 6726, 6727, 6728, 6729, 6730, 6731, 6732, 6733, 6734, 6735, 6736
 6737, 6738, 6739, 6740, 6741, 6742, 6743, 6744, 6745, 6746, 6747, 6748, 6749, 6750, 6751, 6752
 6753, 6754, 6755, 6756, 6757, 6758, 6759, 6760, 6761, 6762, 6763, 6764, 6765, 6766, 6767, 6768
 6769, 6770, 6771, 6772, 8533, 8534, 8535, 8536, 8537, 8538, 8539, 8540, 8541, 8542, 8543, 8544
 8545, 8546, 8547, 8548, 8549, 8550, 8551, 8552, 8553, 8554, 8555, 8556, 8557, 8558, 8559, 8560
 8561, 8562, 8563, 8564, 8565, 8566, 8567, 8568, 8569, 8570, 8571, 8572, 8573, 8574, 8575, 8576
 8577, 8578, 8579, 8580, 8581, 8582, 8583, 8584, 8585, 8586, 8587, 8588, 8589, 8590, 8591, 8592
 8593, 8594, 8595, 8596, 8597, 8598, 8599, 8600, 8601, 8602, 8603, 8604, 8605, 8606, 8607, 8608
 8609, 8610, 8611, 8612, 8613, 8614, 8615, 8616, 8617, 8618, 8619, 8620, 8621, 8622, 8623, 8624
 8625, 8626, 8627, 8628, 8629, 8630, 8631, 8632, 8633, 8634, 8635, 8636, 8637, 8638, 8639, 8640
 8641, 8642, 8643, 8644, 8645, 8646, 8647, 8648, 8649, 8650, 8651, 8652, 8653, 8654, 8655, 8656
 8657, 8658, 8659, 8660, 8661, 8662, 8663, 8664, 8665, 8666, 8667, 8668, 8669, 8670, 8671, 8672
 8673, 8674, 8675, 8676
*Elset, elset=Set-bottom, instance=Bottom-1, generate
 9775,  9943,     1
*Nset, nset=Set-top, instance=Bottom-1
 6394, 6397, 6400, 6401, 6405, 6406, 6407, 6409, 6410, 6446, 6447, 6448, 6449, 6480, 6481, 6482
 6483, 6484, 6485, 6486, 6487, 6488, 6489, 6490, 6491, 6492, 6493, 6494, 6495, 6496, 6497, 6498
 6499, 6500, 6501, 6502, 6503, 6504, 6505, 6506, 6507, 6564, 6565, 6566, 6567, 6568, 6569, 6570
 6571, 6572, 6573, 6574, 6575, 6576, 6577, 6578, 6579, 6580, 6581, 6582, 6583, 6584, 6585, 6586
 6587, 6588, 6589, 6590, 6591, 6592, 6593, 6594, 6595, 6652, 6653, 6654, 6655, 6656, 6657, 6658
 6659, 6664, 6665, 6666, 6667, 6668, 6669, 6670, 6671, 6672, 6673, 6674, 6675, 6713, 6714, 6715
 6716, 6717, 6718, 6719, 6720, 6721, 6722, 6723, 6724, 6877, 6878, 6879, 6880, 6881, 6882, 6883
 6884, 6885, 6886, 6887, 6888, 6889, 6890, 6891, 6892, 6893, 6894, 6895, 6896, 6897, 6898, 6899
 6900, 6901, 6902, 6903, 6904, 6905, 6906, 6907, 6908, 6909, 6910, 6911, 6912, 6913, 6914, 6915
 6916, 6917, 6918, 6919, 6920, 6921, 6922, 6923, 6924, 7333, 7334, 7335, 7336, 7337, 7338, 7339
 7340, 7341, 7342, 7343, 7344, 7345, 7346, 7347, 7348, 7349, 7350, 7351, 7352, 7353, 7354, 7355
 7356, 7357, 7358, 7359, 7360, 7361, 7362, 7363, 7364, 7365, 7366, 7367, 7368, 7369, 7370, 7371
 7372, 7373, 7374, 7375, 7376, 7377, 7378, 7379, 7380, 7849, 7850, 7851, 7852, 7853, 7854, 7855
 7856, 7857, 7858, 7859, 7860, 7861, 7862, 7863, 7864, 8233, 8234, 8235, 8236, 8237, 8238, 8239
 8240, 8241, 8242, 8243, 8244, 8245, 8246, 8247, 8248, 8249, 8250, 8251, 8252, 8253, 8254, 8255
 8256, 8257, 8258, 8259, 8260, 8261, 8262, 8263, 8264, 8265, 8266, 8267, 8268, 8269, 8270, 8271
 8272, 8273, 8274, 8275, 8276, 8277, 8278, 8279, 8280, 8281, 8282, 8283, 8284, 8285, 8286, 8287
 8288, 8289, 8290, 8291, 8292, 8293, 8294, 8295, 8296, 8297, 8298, 8299, 8300, 8301, 8302, 8303
 8304, 8305, 8306, 8307, 8308, 8309, 8310, 8311, 8312, 8313, 8314, 8315, 8316, 8317, 8318, 8319
 8320, 8321, 8322, 8323, 8324, 8325, 8326, 8327, 8328, 8329, 8330, 8331, 8332, 8333, 8334, 8335
 8336, 8337, 8338, 8339, 8340, 8341, 8342, 8343, 8344, 8345, 8346, 8347, 8348, 8349, 8350, 8351
 8352, 8353, 8354, 8355, 8356, 8357, 8358, 8359, 8360, 8361, 8362, 8363, 8364, 8365, 8366, 8367
 8368, 8369, 8370, 8371, 8372, 8373, 8374, 8375, 8376
*Elset, elset=Set-top, instance=Bottom-1
 5239, 5253, 5267, 5281, 5295, 5309, 5323, 5337, 5351, 5365, 5379, 5393, 5407, 5421, 5435, 5449
 5463, 5477, 5491, 5505, 5519, 5533, 5547, 5561, 5575, 5589, 5603, 5617, 5631, 5645, 5659, 5673
 5687, 5701, 5715, 5729, 5743, 5757, 5771, 5785, 5799, 5813, 5827, 5841, 5855, 5869, 5883, 5897
 5911, 5925, 5939, 5953, 5967, 5981, 5995, 6009, 6023, 6037, 6051, 6065, 6079, 6093, 6107, 6121
 6135, 6994, 6995, 6996, 6997, 6998, 6999, 7000, 7001, 7002, 7003, 7004, 7005, 7006, 7007, 7008
 7009, 7010, 7011, 7012, 7013, 7014, 7015, 7016, 7017, 7018, 7019, 7020, 7021, 7022, 7023, 7024
 7025, 7026, 7027, 7028, 7029, 7030, 7031, 7032, 7033, 7034, 7035, 7036, 7037, 7038, 7039, 7040
 7041, 7042, 7043, 7044, 7045, 7046, 7047, 7048, 7049, 7050, 7051, 7052, 7053, 7054, 7055, 7056
 7057, 7058, 7059, 7073, 7087, 7101, 7115, 7129, 7143, 7157, 7171, 7185, 7199, 7213, 7227, 7241
 7255, 7269, 7283, 7297, 7311, 7325, 7339, 7353, 7367, 7381, 7395, 7422, 7436, 7450, 7464, 7478
 7492, 7506, 7520, 7534, 7548, 7562, 7576, 7590, 7604, 7618, 7632, 7646, 7660, 7674, 7688, 7702
 7716, 7730, 7744, 7758, 7772, 7786, 7800, 7814, 7828, 7842, 7856, 7870, 7884, 7898, 7912, 7926
 7940, 7954, 7968, 7982, 7996, 8010, 8024, 8038, 8052, 8066, 8080, 8094, 8108, 8122, 8136, 8150
 8164, 8178, 8192, 8206, 8220, 8234, 8248, 8262, 8276, 8290, 8304, 8318, 8332, 8346, 8360, 8374
 8388, 8402, 8416, 8430, 8444, 8458, 8472, 8486, 8500, 8514, 8528, 8542, 8556, 8570, 8584, 8598
 8612, 8626, 8640, 8654, 8668, 8682, 8696, 8710, 8724, 8738, 8752, 8766, 8780, 8794, 8808, 8822
 8836, 8850, 8864, 8878, 8892, 8906, 8920, 8934, 8948, 8962, 8976, 8990, 9004, 9018, 9032, 9046
 9060, 9074, 9088, 9102, 9116, 9130, 9144, 9158, 9172, 9186, 9200, 9214, 9228, 9242, 9256, 9270
 9284, 9298, 9312, 9326, 9340, 9354, 9368, 9382, 9396, 9410, 9424, 9438, 9452, 9466, 9480, 9494
 9508, 9522, 9536, 9550, 9564, 9578, 9592, 9606, 9620, 9634, 9648, 9662, 9676, 9690, 9704, 9718
 9732, 9746, 9760, 9774
*Elset, elset=_Surf-M-bottom_S2, internal, instance=Bottom-1, generate
 9775,  9943,     1
*Surface, type=ELEMENT, name=Surf-M-bottom
_Surf-M-bottom_S2, S2
*End Assembly
** 
** MATERIALS
** 
*Material, name=Cohesive
*Damage Initiation, criterion=MAXS
 6e+06, 1.2e+07, 1.2e+07
*Damage Evolution, type=ENERGY
23000.,
*Elastic, type=TRACTION
 1.2e+13, 1.2e+13, 1.2e+13
*Material, name=Concrete_com
*Depvar
     65,
*User Material, constants=9
 2.7e+10,    0.2255,      485., 0.0048417,      35.9,      20.6, 5.013e-06,       95.
     0.095,
*Material, name=Elas
*Elastic
 3.8e+10, 0.3
** 
** INTERACTION PROPERTIES
** 
*Surface Interaction, name=IntProp-1
1.,
*Friction
0.,
*Surface Behavior, pressure-overclosure=HARD
** 
** BOUNDARY CONDITIONS
** 
** Name: BC-x Type: Symmetry/Antisymmetry/Encastre
*Boundary
Set-X, XSYMM
** Name: BC-y Type: Symmetry/Antisymmetry/Encastre
*Boundary
Set-y, YSYMM
** Name: BC-z Type: Symmetry/Antisymmetry/Encastre
*Boundary
Set-bottom, ZSYMM
** ----------------------------------------------------------------
** 
** STEP: Step-1
** 
*Step, name=Step-1, nlgeom=YES, inc=1000000
*Static
0.001, 1., 1e-20, 0.002
** 
** BOUNDARY CONDITIONS
** 
** Name: BC-pull Type: Displacement/Rotation
*Boundary
Set-top, 3, 3, -1e-05
** 
** CONTROLS
** 
*Controls, reset
*Controls, parameters=time incrementation
, , , , , , , 15, , , 
** 
** OUTPUT REQUESTS
** 
*Restart, write, frequency=0
** 
** FIELD OUTPUT: F-Output-1
** 
*Output, field, frequency=10
*Node Output
U, 
*Element Output, directions=YES
E, S, SDV
** 
** HISTORY OUTPUT: H-Output-1
** 
*Output, history, variable=PRESELECT
*End Step
